
 OpenBabel03301715363D

 13 12  0  0  0  0  0  0  0  0999 V2000
   -0.3593   -0.4570   -0.9787 P   0  0  0  0  0  0  0  0  0  0  0  0
   -1.4492   -1.6648   -0.0679 C   0  0  0  0  0  0  0  0  0  0  0  0
   -2.5122   -1.4368   -0.2891 H   0  0  0  0  0  0  0  0  0  0  0  0
   -1.2830   -1.5935    1.0270 H   0  0  0  0  0  0  0  0  0  0  0  0
   -1.2194   -2.6962   -0.4053 H   0  0  0  0  0  0  0  0  0  0  0  0
    1.2496   -0.9004   -0.1471 C   0  0  0  0  0  0  0  0  0  0  0  0
    1.5879   -1.8942   -0.5052 H   0  0  0  0  0  0  0  0  0  0  0  0
    1.1235   -0.9348    0.9551 H   0  0  0  0  0  0  0  0  0  0  0  0
    2.0160   -0.1397   -0.4011 H   0  0  0  0  0  0  0  0  0  0  0  0
   -0.7523    1.0461    0.0509 C   0  0  0  0  0  0  0  0  0  0  0  0
   -1.7991    1.3592   -0.1398 H   0  0  0  0  0  0  0  0  0  0  0  0
   -0.0663    1.8713   -0.2301 H   0  0  0  0  0  0  0  0  0  0  0  0
   -0.6297    0.8227    1.1311 H   0  0  0  0  0  0  0  0  0  0  0  0
  1  2  1  0  0  0  0
  1  6  1  0  0  0  0
  1 10  1  0  0  0  0
  2  3  1  0  0  0  0
  2  4  1  0  0  0  0
  2  5  1  0  0  0  0
  6  7  1  0  0  0  0
  6  8  1  0  0  0  0
  6  9  1  0  0  0  0
 10 11  1  0  0  0  0
 10 12  1  0  0  0  0
 10 13  1  0  0  0  0
M  END
