
 OpenBabel11161612053D

 30 31  0  0  0  0  0  0  0  0999 V2000
    3.2537    8.6024   17.7596 N   0  0  0  0  0  0  0  0  0  0  0  0
    0.5730    9.0240   17.6235 N   0  0  0  0  0  0  0  0  0  0  0  0
    4.6024    8.4831   17.7672 C   0  0  0  0  0  0  0  0  0  0  0  0
    5.2114    9.2866   17.3887 H   0  0  0  0  0  0  0  0  0  0  0  0
    5.2047    7.3313   18.2704 C   0  0  0  0  0  0  0  0  0  0  0  0
    6.2835    7.2432   18.2778 H   0  0  0  0  0  0  0  0  0  0  0  0
    4.4024    6.3032   18.7630 C   0  0  0  0  0  0  0  0  0  0  0  0
    3.0122    6.4412   18.7424 C   0  0  0  0  0  0  0  0  0  0  0  0
    2.4113    5.6330   19.1264 H   0  0  0  0  0  0  0  0  0  0  0  0
    0.0427    6.9305   18.6517 C   0  0  0  0  0  0  0  0  0  0  0  0
    0.3258    5.9910   19.0980 H   0  0  0  0  0  0  0  0  0  0  0  0
   -1.3163    7.2413   18.5599 C   0  0  0  0  0  0  0  0  0  0  0  0
   -1.7105    8.4500   17.9869 C   0  0  0  0  0  0  0  0  0  0  0  0
   -2.7587    8.7075   17.9062 H   0  0  0  0  0  0  0  0  0  0  0  0
   -0.7380    9.3329   17.5190 C   0  0  0  0  0  0  0  0  0  0  0  0
   -1.0333   10.2745   17.0759 H   0  0  0  0  0  0  0  0  0  0  0  0
    2.4377    7.6233   18.2242 C   0  0  0  0  0  0  0  0  0  0  0  0
    0.9984    7.8501   18.1680 C   0  0  0  0  0  0  0  0  0  0  0  0
   -2.5743    6.0654   19.1971 S   0  0  0  0  0  0  0  0  0  0  0  0
    5.1660    4.7753   19.4369 S   0  0  0  0  0  0  0  0  0  0  0  0
    4.7686    4.5888   20.9260 O   0  0  0  0  0  0  0  0  0  0  0  0
    4.6668    3.2985   18.6705 O   0  0  0  0  0  0  0  0  0  0  0  0
    3.7372    3.1511   18.9792 H   0  0  0  0  0  0  0  0  0  0  0  0
    6.9017    4.7734   19.4706 O   0  0  0  0  0  0  0  0  0  0  0  0
    7.1701    4.6303   18.5283 H   0  0  0  0  0  0  0  0  0  0  0  0
   -2.4799    4.6957   18.4716 O   0  0  0  0  0  0  0  0  0  0  0  0
   -4.2239    6.5627   18.9755 O   0  0  0  0  0  0  0  0  0  0  0  0
   -4.3862    6.4831   18.0017 H   0  0  0  0  0  0  0  0  0  0  0  0
   -2.3965    5.6746   20.8799 O   0  0  0  0  0  0  0  0  0  0  0  0
   -1.5435    5.1744   20.9370 H   0  0  0  0  0  0  0  0  0  0  0  0
  1 17  1  0  0  0  0
  2 15  2  0  0  0  0
  2 18  1  0  0  0  0
  3  1  2  0  0  0  0
  3  5  1  0  0  0  0
  4  3  1  0  0  0  0
  5  7  2  0  0  0  0
  6  5  1  0  0  0  0
  7  8  1  0  0  0  0
  7 20  1  0  0  0  0
  8  9  1  0  0  0  0
 10 12  1  0  0  0  0
 10 11  1  0  0  0  0
 12 19  1  0  0  0  0
 13 14  1  0  0  0  0
 13 12  2  0  0  0  0
 15 13  1  0  0  0  0
 16 15  1  0  0  0  0
 17 18  1  0  0  0  0
 17  8  2  0  0  0  0
 18 10  2  0  0  0  0
 19 27  1  0  0  0  0
 19 29  1  0  0  0  0
 20 22  1  0  0  0  0
 20 24  1  0  0  0  0
 21 20  2  0  0  0  0
 22 23  1  0  0  0  0
 24 25  1  0  0  0  0
 26 19  2  0  0  0  0
 27 28  1  0  0  0  0
 29 30  1  0  0  0  0
M  END
