
 OpenBabel11111614373D

  9  8  0  0  0  0  0  0  0  0999 V2000
   -2.2902    2.9376    0.3036 S   0  5  0  0  0  0  0  0  0  0  0  0
   -2.8952    1.6702    0.3801 C   0  0  0  0  0  0  0  0  0  0  0  0
   -2.9734    3.1884   -0.9006 C   0  0  0  0  0  0  0  0  0  0  0  0
   -2.7134    4.1613   -1.2622 H   0  0  0  0  0  0  0  0  0  0  0  0
   -4.0284    3.1420   -0.7285 H   0  0  0  0  0  0  0  0  0  0  0  0
   -2.6978    2.4525   -1.6269 H   0  0  0  0  0  0  0  0  0  0  0  0
   -2.5596    1.1674    1.2630 H   0  0  0  0  0  0  0  0  0  0  0  0
   -2.6279    1.0947   -0.4815 H   0  0  0  0  0  0  0  0  0  0  0  0
   -3.9585    1.7842    0.4170 H   0  0  0  0  0  0  0  0  0  0  0  0
  2  1  1  0  0  0  0
  2  7  1  0  0  0  0
  2  8  1  0  0  0  0
  2  9  1  0  0  0  0
  3  1  1  0  0  0  0
  3  4  1  0  0  0  0
  3  5  1  0  0  0  0
  3  6  1  0  0  0  0
M  CHG  1   1  0
M  END
