
 OpenBabel11111617123D

  3  2  0  0  0  0  0  0  0  0999 V2000
   -2.3792    2.4761   -0.1357 S   0  5  0  0  0  0  0  0  0  0  0  0
   -3.2982    2.0407    0.8369 H   0  0  0  0  0  0  0  0  0  0  0  0
   -3.4676    3.3012   -0.4742 H   0  0  0  0  0  0  0  0  0  0  0  0
  2  1  1  0  0  0  0
  3  1  1  0  0  0  0
M  CHG  1   1  0
M  END
