NCO- cyanate 22400266
##CCCBDB 5172214:17
Geometry Optimized at CCSD(T)/6-31G*
  3  2  0  0  0  0  0  0  0  0999 V2000
    0.0000    0.0000   -1.2777 N   0  0  0  0  0  0  0  0  0  0  0  0
    0.0000    0.0000   -0.0724 C   0  0  0  0  0  0  0  0  0  0  0  0
    0.0000    0.0000    1.1723 O   0  0  0  0  0  0  0  0  0  0  0  0
  1  2  2  0  0  0
  2  3  2  0  0  0
M  CHG  1   1  -1
M  END

