NO2- Nitrogen dioxide anion 10102440
##CCCBDB 5172214:14
Geometry Optimized at CCSD/6-31G*
  3  2  0  0  0  0  0  0  0  0999 V2000
    0.0000    0.0000    0.4703 N   0  0  0  0  0  0  0  0  0  0  0  0
    0.0000    1.0757   -0.2058 O   0  0  0  0  0  0  0  0  0  0  0  0
    0.0000   -1.0757   -0.2058 O   0  0  0  0  0  0  0  0  0  0  0  0
  1  2  1  0  0  0
  1  3  1  0  0  0
M  CHG  1   2  -1
M  END

